data_image0
_chemical_formula_structural       C64H44N8O20Yb4
_chemical_formula_sum              "C64 H44 N8 O20 Yb4"
_cell_length_a       8.23334
_cell_length_b       13.9233
_cell_length_c       13.9209
_cell_angle_alpha    84.9979
_cell_angle_beta     72.8162
_cell_angle_gamma    72.7973

_space_group_name_H-M_alt    "P 1"
_space_group_IT_number       1

loop_
  _space_group_symop_operation_xyz
  'x, y, z'

loop_
  _atom_site_type_symbol
  _atom_site_label
  _atom_site_symmetry_multiplicity
  _atom_site_fract_x
  _atom_site_fract_y
  _atom_site_fract_z
  _atom_site_occupancy
  C   C1        1.0  0.84500  0.15261  0.72010  1.0000
  C   C2        1.0  0.43581  0.72044  0.84731  1.0000
  C   C3        1.0  0.71674  0.84726  0.27974  1.0000
  C   C4        1.0  0.00335  0.27963  0.15270  1.0000
  C   C5        1.0  0.70987  0.11088  0.76962  1.0000
  C   C6        1.0  0.52137  0.76998  0.88911  1.0000
  C   C7        1.0  0.58938  0.88917  0.23021  1.0000
  C   C8        1.0  0.18022  0.23015  0.11084  1.0000
  C   C9        1.0  0.74451  0.02169  0.82638  1.0000
  C   C10       1.0  0.42979  0.82671  0.97833  1.0000
  C   C11       1.0  0.59170  0.97843  0.17361  1.0000
  C   C12       1.0  0.23463  0.17368  0.02145  1.0000
  C   C13       1.0  0.91484  0.97305  0.82997  1.0000
  C   C14       1.0  0.25591  0.83026  0.02695  1.0000
  C   C15       1.0  0.71703  0.02699  0.17009  1.0000
  C   C16       1.0  0.11291  0.17015  0.97280  1.0000
  C   C17       1.0  0.05721  0.01305  0.77864  1.0000
  C   C18       1.0  0.16493  0.77890  0.98689  1.0000
  C   C19       1.0  0.84815  0.98682  0.22139  1.0000
  C   C20       1.0  0.93048  0.22139  0.01297  1.0000
  C   C21       1.0  0.23435  0.96419  0.77951  1.0000
  C   C22       1.0  0.98693  0.77967  0.03564  1.0000
  C   C23       1.0  0.97735  0.03559  0.22066  1.0000
  C   C24       1.0  0.80199  0.22056  0.96423  1.0000
  C   C25       1.0  0.36987  0.00594  0.73207  1.0000
  C   C26       1.0  0.89899  0.73225  0.99372  1.0000
  C   C27       1.0  0.10725  0.99367  0.26806  1.0000
  C   C28       1.0  0.62474  0.26803  0.00609  1.0000
  C   C29       1.0  0.33334  0.09956  0.68239  1.0000
  C   C30       1.0  0.98537  0.68265  0.90007  1.0000
  C   C31       1.0  0.11470  0.89994  0.31751  1.0000
  C   C32       1.0  0.56786  0.31771  0.09971  1.0000
  C   C33       1.0  0.16354  0.14783  0.67763  1.0000
  C   C34       1.0  0.15990  0.67799  0.85192  1.0000
  C   C35       1.0  0.98834  0.85177  0.32212  1.0000
  C   C36       1.0  0.68957  0.32229  0.14793  1.0000
  C   C37       1.0  0.02185  0.10590  0.72466  1.0000
  C   C38       1.0  0.25444  0.72500  0.89401  1.0000
  C   C39       1.0  0.85156  0.89389  0.27521  1.0000
  C   C40       1.0  0.87318  0.27524  0.10590  1.0000
  C   C41       1.0  0.80902  0.24728  0.65984  1.0000
  C   C42       1.0  0.53165  0.66009  0.75265  1.0000
  C   C43       1.0  0.71545  0.75257  0.33999  1.0000
  C   C44       1.0  0.94427  0.33985  0.24745  1.0000
  C   C45       1.0  0.43025  0.24468  0.40143  1.0000
  C   C46       1.0  0.16812  0.40145  0.75529  1.0000
  C   C47       1.0  0.07649  0.75509  0.59855  1.0000
  C   C48       1.0  0.32426  0.59863  0.24480  1.0000
  C   C49       1.0  0.34597  0.17481  0.38935  1.0000
  C   C50       1.0  0.26425  0.38937  0.82531  1.0000
  C   C51       1.0  0.91025  0.82490  0.61053  1.0000
  C   C52       1.0  0.47811  0.61085  0.17479  1.0000
  C   C53       1.0  0.54592  0.04997  0.44571  1.0000
  C   C54       1.0  0.00778  0.44585  0.94998  1.0000
  C   C55       1.0  0.04157  0.94980  0.55445  1.0000
  C   C56       1.0  0.40258  0.55448  0.05009  1.0000
  C   C57       1.0  0.63238  0.11902  0.45783  1.0000
  C   C58       1.0  0.90942  0.45794  0.88081  1.0000
  C   C59       1.0  0.20923  0.88079  0.54234  1.0000
  C   C60       1.0  0.24736  0.54220  0.11929  1.0000
  C   C61       1.0  0.36646  0.35525  0.37922  1.0000
  C   C62       1.0  0.25437  0.37921  0.64474  1.0000
  C   C63       1.0  0.10107  0.64456  0.62086  1.0000
  C   C64       1.0  0.27794  0.62076  0.35536  1.0000
  H   H1        1.0  0.50021  0.47057  0.65274  1.0000
  H   H2        1.0  0.84701  0.65273  0.52948  1.0000
  H   H3        1.0  0.62319  0.52940  0.34739  1.0000
  H   H4        1.0  0.02922  0.34733  0.47060  1.0000
  H   H5        1.0  0.57529  0.14766  0.76550  1.0000
  H   H6        1.0  0.66005  0.76590  0.85241  1.0000
  H   H7        1.0  0.48735  0.85251  0.23427  1.0000
  H   H8        1.0  0.27809  0.23411  0.14765  1.0000
  H   H9        1.0  0.63548  0.99078  0.86620  1.0000
  H   H10       1.0  0.49885  0.86655  0.00938  1.0000
  H   H11       1.0  0.49152  0.00951  0.13382  1.0000
  H   H12       1.0  0.37458  0.13386  0.99045  1.0000
  H   H13       1.0  0.94246  0.90340  0.87230  1.0000
  H   H14       1.0  0.18588  0.87255  0.09664  1.0000
  H   H15       1.0  0.71735  0.09671  0.12788  1.0000
  H   H16       1.0  0.15487  0.12792  0.90308  1.0000
  H   H17       1.0  0.26155  0.89269  0.81840  1.0000
  H   H18       1.0  0.92074  0.81840  0.10725  1.0000
  H   H19       1.0  0.97189  0.10720  0.18194  1.0000
  H   H20       1.0  0.84614  0.18173  0.89269  1.0000
  H   H21       1.0  0.50571  0.96718  0.73261  1.0000
  H   H22       1.0  0.76264  0.73270  0.03243  1.0000
  H   H23       1.0  0.20491  0.03237  0.26762  1.0000
  H   H24       1.0  0.52753  0.26748  0.96742  1.0000
  H   H25       1.0  0.43975  0.13381  0.64755  1.0000
  H   H26       1.0  0.91395  0.64778  0.86569  1.0000
  H   H27       1.0  0.22054  0.86556  0.35235  1.0000
  H   H28       1.0  0.42722  0.35261  0.13405  1.0000
  H   H29       1.0  0.13647  0.21945  0.63852  1.0000
  H   H30       1.0  0.22613  0.63887  0.78030  1.0000
  H   H31       1.0  0.99380  0.78012  0.36116  1.0000
  H   H32       1.0  0.64507  0.36136  0.21960  1.0000
  H   H33       1.0  0.22928  0.19902  0.36142  1.0000
  H   H34       1.0  0.40885  0.36137  0.80123  1.0000
  H   H35       1.0  0.78988  0.80067  0.63838  1.0000
  H   H36       1.0  0.57067  0.63882  0.19888  1.0000
  H   H37       1.0  0.59403  0.97109  0.46511  1.0000
  H   H38       1.0  0.94016  0.46531  0.02886  1.0000
  H   H39       1.0  0.03007  0.02871  0.53519  1.0000
  H   H40       1.0  0.43315  0.53512  0.97120  1.0000
  H   H41       1.0  0.74651  0.09627  0.48765  1.0000
  H   H42       1.0  0.76549  0.48777  0.90347  1.0000
  H   H43       1.0  0.33039  0.90357  0.51261  1.0000
  H   H44       1.0  0.15599  0.51228  0.09667  1.0000
  N   N1        1.0  0.57291  0.21644  0.43714  1.0000
  N   N2        1.0  0.98978  0.43719  0.78341  1.0000
  N   N3        1.0  0.22657  0.78335  0.56294  1.0000
  N   N4        1.0  0.20979  0.56285  0.21670  1.0000
  N   N5        1.0  0.40182  0.07728  0.41255  1.0000
  N   N6        1.0  0.18502  0.41263  0.92282  1.0000
  N   N7        1.0  0.89167  0.92245  0.58744  1.0000
  N   N8        1.0  0.51945  0.58770  0.07726  1.0000
  O   O1        1.0  0.78427  0.23924  0.57515  1.0000
  O   O2        1.0  0.64075  0.57529  0.76072  1.0000
  O   O3        1.0  0.59830  0.76060  0.42478  1.0000
  O   O4        1.0  0.97666  0.42463  0.23948  1.0000
  O   O5        1.0  0.80903  0.32779  0.69653  1.0000
  O   O6        1.0  0.49495  0.69676  0.67213  1.0000
  O   O7        1.0  0.83269  0.67208  0.30329  1.0000
  O   O8        1.0  0.86370  0.30314  0.32791  1.0000
  O   O9        1.0  0.45774  0.40992  0.39216  1.0000
  O   O10       1.0  0.15029  0.39227  0.58997  1.0000
  O   O11       1.0  0.25995  0.58991  0.60798  1.0000
  O   O12       1.0  0.13209  0.60780  0.41013  1.0000
  O   O13       1.0  0.23006  0.38535  0.34841  1.0000
  O   O14       1.0  0.42159  0.34830  0.61475  1.0000
  O   O15       1.0  0.96395  0.61451  0.65172  1.0000
  O   O16       1.0  0.38446  0.65150  0.38534  1.0000
  O   O17       1.0  0.59603  0.48396  0.59806  1.0000
  O   O18       1.0  0.80588  0.59803  0.51609  1.0000
  O   O19       1.0  0.67785  0.51595  0.40204  1.0000
  O   O20       1.0  0.91997  0.40201  0.48403  1.0000
  Yb  Yb1       1.0  0.66736  0.36432  0.47815  1.0000
  Yb  Yb2       1.0  0.85455  0.47811  0.63565  1.0000
  Yb  Yb3       1.0  0.50982  0.63555  0.52195  1.0000
  Yb  Yb4       1.0  0.96803  0.52187  0.36448  1.0000
