data_image0
_chemical_formula_structural       Ag4C56H32N8O32Yb4
_chemical_formula_sum              "Ag4 C56 H32 N8 O32 Yb4"
_cell_length_a       9.37238
_cell_length_b       11.9716
_cell_length_c       16.4651
_cell_angle_alpha    97.0635
_cell_angle_beta     89.9968
_cell_angle_gamma    113.025

_space_group_name_H-M_alt    "P 1"
_space_group_IT_number       1

loop_
  _space_group_symop_operation_xyz
  'x, y, z'

loop_
  _atom_site_type_symbol
  _atom_site_label
  _atom_site_symmetry_multiplicity
  _atom_site_fract_x
  _atom_site_fract_y
  _atom_site_fract_z
  _atom_site_occupancy
  Ag  Ag1       1.0  0.78182  0.32455  0.58397  1.0000
  Ag  Ag2       1.0  0.45774  0.67534  0.91601  1.0000
  Ag  Ag3       1.0  0.21818  0.67545  0.41603  1.0000
  Ag  Ag4       1.0  0.54226  0.32466  0.08398  1.0000
  C   C1        1.0  0.21032  0.36703  0.53787  1.0000
  C   C2        1.0  0.84313  0.63304  0.96235  1.0000
  C   C3        1.0  0.78969  0.63297  0.46213  1.0000
  C   C4        1.0  0.15687  0.36696  0.03765  1.0000
  C   C5        1.0  0.27017  0.12819  0.31541  1.0000
  C   C6        1.0  0.14255  0.87234  0.18472  1.0000
  C   C7        1.0  0.72983  0.87181  0.68459  1.0000
  C   C8        1.0  0.85745  0.12766  0.81528  1.0000
  C   C9        1.0  0.17343  0.05214  0.37786  1.0000
  C   C10       1.0  0.12154  0.94819  0.12221  1.0000
  C   C11       1.0  0.82657  0.94787  0.62214  1.0000
  C   C12       1.0  0.87846  0.05181  0.87780  1.0000
  C   C13       1.0  0.41960  0.13459  0.29939  1.0000
  C   C14       1.0  0.28555  0.86587  0.20068  1.0000
  C   C15       1.0  0.58040  0.86541  0.70061  1.0000
  C   C16       1.0  0.71444  0.13413  0.79932  1.0000
  C   C17       1.0  0.11242  0.23181  0.52522  1.0000
  C   C18       1.0  0.88069  0.76833  0.97496  1.0000
  C   C19       1.0  0.88759  0.76819  0.47478  1.0000
  C   C20       1.0  0.11931  0.23167  0.02504  1.0000
  C   C21       1.0  0.17108  0.44434  0.49398  1.0000
  C   C22       1.0  0.72647  0.55583  0.00622  1.0000
  C   C23       1.0  0.82892  0.55566  0.50602  1.0000
  C   C24       1.0  0.27353  0.44416  0.99378  1.0000
  C   C25       1.0  0.38432  0.61398  0.55189  1.0000
  C   C26       1.0  0.76983  0.38603  0.94823  1.0000
  C   C27       1.0  0.61568  0.38602  0.44811  1.0000
  C   C28       1.0  0.23017  0.61397  0.05176  1.0000
  C   C29       1.0  0.42983  0.54292  0.59862  1.0000
  C   C30       1.0  0.88648  0.45700  0.90152  1.0000
  C   C31       1.0  0.57017  0.45709  0.40138  1.0000
  C   C32       1.0  0.11353  0.54300  0.09848  1.0000
  C   C33       1.0  0.34380  0.41694  0.59045  1.0000
  C   C34       1.0  0.92649  0.58299  0.90969  1.0000
  C   C35       1.0  0.65620  0.58306  0.40955  1.0000
  C   C36       1.0  0.07351  0.41700  0.09031  1.0000
  C   C37       1.0  0.29704  0.25833  0.21134  1.0000
  C   C38       1.0  0.03942  0.74217  0.28879  1.0000
  C   C39       1.0  0.70296  0.74167  0.78866  1.0000
  C   C40       1.0  0.96058  0.25783  0.71121  1.0000
  C   C41       1.0  0.53466  0.06989  0.51128  1.0000
  C   C42       1.0  0.46483  0.93008  0.98870  1.0000
  C   C43       1.0  0.46535  0.93011  0.48872  1.0000
  C   C44       1.0  0.53516  0.06991  0.01130  1.0000
  C   C45       1.0  0.49892  0.19929  0.23745  1.0000
  C   C46       1.0  0.30022  0.80110  0.26258  1.0000
  C   C47       1.0  0.50108  0.80071  0.76255  1.0000
  C   C48       1.0  0.69977  0.19890  0.73742  1.0000
  C   C49       1.0  0.20978  0.19384  0.27117  1.0000
  C   C50       1.0  0.01663  0.80673  0.22900  1.0000
  C   C51       1.0  0.79022  0.80616  0.72883  1.0000
  C   C52       1.0  0.98337  0.19327  0.77100  1.0000
  C   C53       1.0  0.20798  0.92910  0.74413  1.0000
  C   C54       1.0  0.27891  0.07055  0.75574  1.0000
  C   C55       1.0  0.79202  0.07091  0.25587  1.0000
  C   C56       1.0  0.72109  0.92946  0.24425  1.0000
  H   H1        1.0  0.47284  0.08766  0.33393  1.0000
  H   H2        1.0  0.38569  0.91276  0.16614  1.0000
  H   H3        1.0  0.52716  0.91234  0.66607  1.0000
  H   H4        1.0  0.61431  0.08724  0.83386  1.0000
  H   H5        1.0  0.06844  0.40646  0.45211  1.0000
  H   H6        1.0  0.66172  0.59378  0.04810  1.0000
  H   H7        1.0  0.93156  0.59354  0.54789  1.0000
  H   H8        1.0  0.33828  0.40622  0.95190  1.0000
  H   H9        1.0  0.44967  0.71232  0.55484  1.0000
  H   H10       1.0  0.73677  0.28768  0.94527  1.0000
  H   H11       1.0  0.55033  0.28768  0.44516  1.0000
  H   H12       1.0  0.26323  0.71232  0.05473  1.0000
  H   H13       1.0  0.53336  0.58658  0.63961  1.0000
  H   H14       1.0  0.94628  0.41327  0.86053  1.0000
  H   H15       1.0  0.46665  0.41343  0.36039  1.0000
  H   H16       1.0  0.05373  0.58673  0.13947  1.0000
  H   H17       1.0  0.37674  0.35592  0.62321  1.0000
  H   H18       1.0  0.02028  0.64396  0.87684  1.0000
  H   H19       1.0  0.62326  0.64408  0.37679  1.0000
  H   H20       1.0  0.97971  0.35604  0.12316  1.0000
  H   H21       1.0  0.25267  0.30957  0.17554  1.0000
  H   H22       1.0  0.94386  0.69096  0.32461  1.0000
  H   H23       1.0  0.74733  0.69043  0.82446  1.0000
  H   H24       1.0  0.05614  0.30904  0.67539  1.0000
  H   H25       1.0  0.61310  0.20228  0.22132  1.0000
  H   H26       1.0  0.41138  0.79800  0.27864  1.0000
  H   H27       1.0  0.38690  0.79771  0.77868  1.0000
  H   H28       1.0  0.58862  0.20199  0.72136  1.0000
  H   H29       1.0  0.09471  0.19258  0.28226  1.0000
  H   H30       1.0  0.90288  0.80809  0.21799  1.0000
  H   H31       1.0  0.90529  0.80742  0.71774  1.0000
  H   H32       1.0  0.09712  0.19192  0.78201  1.0000
  N   N1        1.0  0.25786  0.56538  0.49954  1.0000
  N   N2        1.0  0.69205  0.43474  0.00059  1.0000
  N   N3        1.0  0.74214  0.43462  0.50046  1.0000
  N   N4        1.0  0.30795  0.56526  0.99941  1.0000
  N   N5        1.0  0.43785  0.25928  0.19298  1.0000
  N   N6        1.0  0.17924  0.74110  0.30707  1.0000
  N   N7        1.0  0.56215  0.74072  0.80702  1.0000
  N   N8        1.0  0.82076  0.25890  0.69294  1.0000
  O   O1        1.0  0.03191  0.03674  0.37694  1.0000
  O   O2        1.0  0.99543  0.96362  0.12325  1.0000
  O   O3        1.0  0.96809  0.96326  0.62306  1.0000
  O   O4        1.0  0.00457  0.03638  0.87675  1.0000
  O   O5        1.0  0.97553  0.19820  0.49452  1.0000
  O   O6        1.0  0.77765  0.80214  0.00580  1.0000
  O   O7        1.0  0.02447  0.80179  0.50549  1.0000
  O   O8        1.0  0.22235  0.19786  0.99421  1.0000
  O   O9        1.0  0.17634  0.16352  0.54562  1.0000
  O   O10       1.0  0.01280  0.83635  0.95434  1.0000
  O   O11       1.0  0.82367  0.83648  0.45438  1.0000
  O   O12       1.0  0.98720  0.16364  0.04565  1.0000
  O   O13       1.0  0.24065  0.01105  0.42595  1.0000
  O   O14       1.0  0.22957  0.98907  0.07395  1.0000
  O   O15       1.0  0.75935  0.98895  0.57405  1.0000
  O   O16       1.0  0.77043  0.01093  0.92605  1.0000
  O   O17       1.0  0.46177  0.11644  0.55938  1.0000
  O   O18       1.0  0.34558  0.88356  0.94048  1.0000
  O   O19       1.0  0.53824  0.88357  0.44062  1.0000
  O   O20       1.0  0.65441  0.11644  0.05952  1.0000
  O   O21       1.0  0.66138  0.12811  0.47968  1.0000
  O   O22       1.0  0.53337  0.87190  0.02033  1.0000
  O   O23       1.0  0.33863  0.87189  0.52032  1.0000
  O   O24       1.0  0.46663  0.12810  0.97967  1.0000
  O   O25       1.0  0.19570  0.87561  0.67147  1.0000
  O   O26       1.0  0.32026  0.12402  0.82839  1.0000
  O   O27       1.0  0.80430  0.12439  0.32853  1.0000
  O   O28       1.0  0.67973  0.87598  0.17161  1.0000
  O   O29       1.0  0.16828  0.87868  0.80823  1.0000
  O   O30       1.0  0.28972  0.12101  0.69166  1.0000
  O   O31       1.0  0.83172  0.12132  0.19177  1.0000
  O   O32       1.0  0.71028  0.87899  0.30834  1.0000
  Yb  Yb1       1.0  0.19937  0.99010  0.56745  1.0000
  Yb  Yb2       1.0  0.20923  0.00964  0.93242  1.0000
  Yb  Yb3       1.0  0.80064  0.00991  0.43255  1.0000
  Yb  Yb4       1.0  0.79077  0.99036  0.06758  1.0000
