data_image0
_chemical_formula_structural       C20H16N8O28S2Yb4
_chemical_formula_sum              "C20 H16 N8 O28 S2 Yb4"
_cell_length_a       6.55447
_cell_length_b       10.8938
_cell_length_c       12.9563
_cell_angle_alpha    105.368
_cell_angle_beta     90.0056
_cell_angle_gamma    107.484

_space_group_name_H-M_alt    "P 1"
_space_group_IT_number       1

loop_
  _space_group_symop_operation_xyz
  'x, y, z'

loop_
  _atom_site_type_symbol
  _atom_site_label
  _atom_site_symmetry_multiplicity
  _atom_site_fract_x
  _atom_site_fract_y
  _atom_site_fract_z
  _atom_site_occupancy
  C   C1        1.0  0.63681  0.73918  0.96425  1.0000
  C   C2        1.0  0.89763  0.26061  0.53575  1.0000
  C   C3        1.0  0.36319  0.26082  0.03574  1.0000
  C   C4        1.0  0.10238  0.73939  0.46425  1.0000
  C   C5        1.0  0.80687  0.67487  0.95467  1.0000
  C   C6        1.0  0.13194  0.32500  0.54538  1.0000
  C   C7        1.0  0.19313  0.32513  0.04533  1.0000
  C   C8        1.0  0.86806  0.67501  0.45462  1.0000
  C   C9        1.0  0.43629  0.83846  0.90791  1.0000
  C   C10       1.0  0.59785  0.16146  0.59203  1.0000
  C   C11       1.0  0.56371  0.16154  0.09209  1.0000
  C   C12       1.0  0.40216  0.83854  0.40797  1.0000
  C   C13       1.0  0.43541  0.69721  0.13226  1.0000
  C   C14       1.0  0.73820  0.30279  0.36774  1.0000
  C   C15       1.0  0.56459  0.30278  0.86774  1.0000
  C   C16       1.0  0.26181  0.69722  0.63226  1.0000
  C   C17       1.0  0.48928  0.75422  0.04028  1.0000
  C   C18       1.0  0.73521  0.24566  0.45968  1.0000
  C   C19       1.0  0.51072  0.24578  0.95972  1.0000
  C   C20       1.0  0.26479  0.75434  0.54032  1.0000
  H   H1        1.0  0.36308  0.88652  0.86166  1.0000
  H   H2        1.0  0.47654  0.11355  0.63828  1.0000
  H   H3        1.0  0.63692  0.11349  0.13834  1.0000
  H   H4        1.0  0.52346  0.88645  0.36172  1.0000
  H   H5        1.0  0.24843  0.84870  0.04344  1.0000
  H   H6        1.0  0.39994  0.15133  0.45645  1.0000
  H   H7        1.0  0.75157  0.15130  0.95656  1.0000
  H   H8        1.0  0.60006  0.84867  0.54356  1.0000
  H   H9        1.0  0.48164  0.43190  0.65099  1.0000
  H   H10       1.0  0.04962  0.56798  0.84926  1.0000
  H   H11       1.0  0.51836  0.56810  0.34901  1.0000
  H   H12       1.0  0.95038  0.43201  0.15074  1.0000
  H   H13       1.0  0.65403  0.44103  0.73730  1.0000
  H   H14       1.0  0.21255  0.55882  0.76284  1.0000
  H   H15       1.0  0.34598  0.55897  0.26270  1.0000
  H   H16       1.0  0.78745  0.44118  0.23716  1.0000
  N   N1        1.0  0.59890  0.78970  0.88161  1.0000
  N   N2        1.0  0.80915  0.21011  0.61837  1.0000
  N   N3        1.0  0.40110  0.21031  0.11839  1.0000
  N   N4        1.0  0.19085  0.78989  0.38163  1.0000
  N   N5        1.0  0.36628  0.81789  0.00213  1.0000
  N   N6        1.0  0.54853  0.18205  0.49779  1.0000
  N   N7        1.0  0.63372  0.18211  0.99787  1.0000
  N   N8        1.0  0.45147  0.81795  0.50221  1.0000
  O   O1        1.0  0.87916  0.65335  0.86134  1.0000
  O   O2        1.0  0.22570  0.34652  0.63874  1.0000
  O   O3        1.0  0.12084  0.34665  0.13865  1.0000
  O   O4        1.0  0.77430  0.65347  0.36127  1.0000
  O   O5        1.0  0.04937  0.91459  0.80096  1.0000
  O   O6        1.0  0.13495  0.08518  0.69906  1.0000
  O   O7        1.0  0.95063  0.08541  0.19904  1.0000
  O   O8        1.0  0.86504  0.91482  0.30094  1.0000
  O   O9        1.0  0.78899  0.90311  0.66944  1.0000
  O   O10       1.0  0.88552  0.09676  0.83029  1.0000
  O   O11       1.0  0.21100  0.09689  0.33056  1.0000
  O   O12       1.0  0.11448  0.90324  0.16971  1.0000
  O   O13       1.0  0.87861  0.64482  0.03128  1.0000
  O   O14       1.0  0.23365  0.35508  0.46879  1.0000
  O   O15       1.0  0.12138  0.35518  0.96872  1.0000
  O   O16       1.0  0.76634  0.64492  0.53122  1.0000
  O   O17       1.0  0.24629  0.67670  0.16159  1.0000
  O   O18       1.0  0.56944  0.32322  0.33849  1.0000
  O   O19       1.0  0.75370  0.32330  0.83841  1.0000
  O   O20       1.0  0.43056  0.67678  0.66151  1.0000
  O   O21       1.0  0.57781  0.66611  0.17658  1.0000
  O   O22       1.0  0.91167  0.33411  0.32345  1.0000
  O   O23       1.0  0.42219  0.33389  0.82342  1.0000
  O   O24       1.0  0.08833  0.66589  0.67655  1.0000
  O   O25       1.0  0.63595  0.48060  0.67945  1.0000
  O   O26       1.0  0.15529  0.51929  0.82076  1.0000
  O   O27       1.0  0.36405  0.51940  0.32055  1.0000
  O   O28       1.0  0.84471  0.48071  0.17924  1.0000
  S   S1        1.0  0.96838  0.99990  0.74993  1.0000
  S   S2        1.0  0.03162  0.00010  0.25007  1.0000
  Yb  Yb1       1.0  0.77338  0.70541  0.71249  1.0000
  Yb  Yb2       1.0  0.06788  0.29443  0.78747  1.0000
  Yb  Yb3       1.0  0.22662  0.29459  0.28751  1.0000
  Yb  Yb4       1.0  0.93211  0.70557  0.21253  1.0000
