data_image0
_chemical_formula_structural       C8H16K2O24Yb2
_chemical_formula_sum              "C8 H16 K2 O24 Yb2"
_cell_length_a       8.74617
_cell_length_b       9.1489
_cell_length_c       9.14896
_cell_angle_alpha    76.7919
_cell_angle_beta     61.4448
_cell_angle_gamma    61.4447

_space_group_name_H-M_alt    "P 1"
_space_group_IT_number       1

loop_
  _space_group_symop_operation_xyz
  'x, y, z'

loop_
  _atom_site_type_symbol
  _atom_site_label
  _atom_site_symmetry_multiplicity
  _atom_site_fract_x
  _atom_site_fract_y
  _atom_site_fract_z
  _atom_site_occupancy
  C   C1        1.0  0.39441  0.51882  0.52854  1.0000
  C   C2        1.0  0.41324  0.02853  0.48118  1.0000
  C   C3        1.0  0.94178  0.98118  0.97146  1.0000
  C   C4        1.0  0.42295  0.47147  0.01882  1.0000
  C   C5        1.0  0.60557  0.48118  0.47147  1.0000
  C   C6        1.0  0.58676  0.97146  0.51882  1.0000
  C   C7        1.0  0.05822  0.01882  0.02853  1.0000
  C   C8        1.0  0.57704  0.52854  0.98118  1.0000
  H   H1        1.0  0.83265  0.67389  0.17102  1.0000
  H   H2        1.0  0.00654  0.67102  0.32611  1.0000
  H   H3        1.0  0.17756  0.82611  0.32898  1.0000
  H   H4        1.0  0.50367  0.82898  0.17389  1.0000
  H   H5        1.0  0.16735  0.32611  0.82898  1.0000
  H   H6        1.0  0.99346  0.32898  0.67389  1.0000
  H   H7        1.0  0.82244  0.17390  0.67102  1.0000
  H   H8        1.0  0.49633  0.17102  0.82611  1.0000
  H   H9        1.0  0.75989  0.59114  0.09844  1.0000
  H   H10       1.0  0.85103  0.59843  0.40886  1.0000
  H   H11       1.0  0.94946  0.90886  0.40157  1.0000
  H   H12       1.0  0.35833  0.90157  0.09114  1.0000
  H   H13       1.0  0.24011  0.40886  0.90156  1.0000
  H   H14       1.0  0.14897  0.40157  0.59114  1.0000
  H   H15       1.0  0.05054  0.09113  0.59843  1.0000
  H   H16       1.0  0.64167  0.09843  0.90886  1.0000
  K   K1        1.0  0.87500  0.75000  0.74999  1.0000
  K   K2        1.0  0.12499  0.24999  0.25001  1.0000
  O   O1        1.0  0.26955  0.62467  0.64277  1.0000
  O   O2        1.0  0.39423  0.14275  0.37534  1.0000
  O   O3        1.0  0.03699  0.87533  0.85724  1.0000
  O   O4        1.0  0.41232  0.35725  0.12467  1.0000
  O   O5        1.0  0.73043  0.37534  0.35725  1.0000
  O   O6        1.0  0.60578  0.85724  0.62466  1.0000
  O   O7        1.0  0.96302  0.12466  0.14275  1.0000
  O   O8        1.0  0.58768  0.64276  0.87533  1.0000
  O   O9        1.0  0.36515  0.43875  0.45532  1.0000
  O   O10       1.0  0.30388  0.95532  0.56126  1.0000
  O   O11       1.0  0.75921  0.06126  0.04468  1.0000
  O   O12       1.0  0.32047  0.54467  0.93873  1.0000
  O   O13       1.0  0.63486  0.56126  0.54467  1.0000
  O   O14       1.0  0.69610  0.04468  0.43874  1.0000
  O   O15       1.0  0.24080  0.93873  0.95532  1.0000
  O   O16       1.0  0.67953  0.45532  0.06126  1.0000
  O   O17       1.0  0.75631  0.69769  0.10851  1.0000
  O   O18       1.0  0.95401  0.60852  0.30230  1.0000
  O   O19       1.0  0.06252  0.80230  0.39148  1.0000
  O   O20       1.0  0.36482  0.89148  0.19770  1.0000
  O   O21       1.0  0.24369  0.30230  0.89148  1.0000
  O   O22       1.0  0.04599  0.39149  0.69770  1.0000
  O   O23       1.0  0.93748  0.19770  0.60852  1.0000
  O   O24       1.0  0.63518  0.10852  0.80230  1.0000
  Yb  Yb1       1.0  0.37501  0.75000  0.75000  1.0000
  Yb  Yb2       1.0  0.62500  0.25000  0.25000  1.0000
