data_image0
_chemical_formula_structural       C12H18O12Yb2
_chemical_formula_sum              "C12 H18 O12 Yb2"
_cell_length_a       8.1287
_cell_length_b       8.12869
_cell_length_c       8.26086
_cell_angle_alpha    90
_cell_angle_beta     89.9999
_cell_angle_gamma    119.086

_space_group_name_H-M_alt    "P 1"
_space_group_IT_number       1

loop_
  _space_group_symop_operation_xyz
  'x, y, z'

loop_
  _atom_site_type_symbol
  _atom_site_label
  _atom_site_symmetry_multiplicity
  _atom_site_fract_x
  _atom_site_fract_y
  _atom_site_fract_z
  _atom_site_occupancy
  C   C1        1.0  0.27404  0.27404  0.97325  1.0000
  C   C2        1.0  0.72597  0.72596  0.47326  1.0000
  C   C3        1.0  0.39706  0.39706  0.84066  1.0000
  C   C4        1.0  0.60294  0.60294  0.34066  1.0000
  C   C5        1.0  0.98043  0.67626  0.01916  1.0000
  C   C6        1.0  0.01957  0.32374  0.51917  1.0000
  C   C7        1.0  0.67626  0.98043  0.01916  1.0000
  C   C8        1.0  0.32374  0.01957  0.51916  1.0000
  C   C9        1.0  0.98903  0.49572  0.03250  1.0000
  C   C10       1.0  0.01096  0.50428  0.53250  1.0000
  C   C11       1.0  0.49572  0.98903  0.03250  1.0000
  C   C12       1.0  0.50428  0.01096  0.53250  1.0000
  H   H1        1.0  0.34240  0.34240  0.72041  1.0000
  H   H2        1.0  0.65759  0.65759  0.22042  1.0000
  H   H3        1.0  0.53904  0.41445  0.85352  1.0000
  H   H4        1.0  0.46096  0.58555  0.35353  1.0000
  H   H5        1.0  0.41445  0.53904  0.85352  1.0000
  H   H6        1.0  0.58555  0.46096  0.35353  1.0000
  H   H7        1.0  0.02116  0.46986  0.15539  1.0000
  H   H8        1.0  0.97883  0.53013  0.65539  1.0000
  H   H9        1.0  0.46987  0.02116  0.15539  1.0000
  H   H10       1.0  0.53013  0.97883  0.65539  1.0000
  H   H11       1.0  0.09574  0.50115  0.94775  1.0000
  H   H12       1.0  0.90424  0.49884  0.44775  1.0000
  H   H13       1.0  0.50116  0.09575  0.94775  1.0000
  H   H14       1.0  0.49885  0.90424  0.44775  1.0000
  H   H15       1.0  0.85451  0.37808  0.99216  1.0000
  H   H16       1.0  0.14548  0.62193  0.49217  1.0000
  H   H17       1.0  0.37808  0.85451  0.99216  1.0000
  H   H18       1.0  0.62193  0.14548  0.49217  1.0000
  O   O1        1.0  0.11937  0.11937  0.94293  1.0000
  O   O2        1.0  0.88064  0.88064  0.44292  1.0000
  O   O3        1.0  0.01478  0.77971  0.14420  1.0000
  O   O4        1.0  0.98523  0.22029  0.64419  1.0000
  O   O5        1.0  0.77972  0.01479  0.14420  1.0000
  O   O6        1.0  0.22029  0.98523  0.64419  1.0000
  O   O7        1.0  0.93856  0.71572  0.88126  1.0000
  O   O8        1.0  0.06144  0.28429  0.38125  1.0000
  O   O9        1.0  0.71572  0.93856  0.88126  1.0000
  O   O10       1.0  0.28429  0.06144  0.38125  1.0000
  O   O11       1.0  0.31776  0.31776  0.12021  1.0000
  O   O12       1.0  0.68225  0.68225  0.62020  1.0000
  Yb  Yb1       1.0  0.05789  0.05788  0.23038  1.0000
  Yb  Yb2       1.0  0.94212  0.94212  0.73038  1.0000
