data_image0
_chemical_formula_structural       C24H24N36Yb4
_chemical_formula_sum              "C24 H24 N36 Yb4"
_cell_length_a       9.18723
_cell_length_b       9.18723
_cell_length_c       12.4778
_cell_angle_alpha    91.5684
_cell_angle_beta     91.5683
_cell_angle_gamma    118.922

_space_group_name_H-M_alt    "P 1"
_space_group_IT_number       1

loop_
  _space_group_symop_operation_xyz
  'x, y, z'

loop_
  _atom_site_type_symbol
  _atom_site_label
  _atom_site_symmetry_multiplicity
  _atom_site_fract_x
  _atom_site_fract_y
  _atom_site_fract_z
  _atom_site_occupancy
  C   C1        1.0  0.26781  0.38989  0.29627  1.0000
  C   C2        1.0  0.61011  0.73219  0.20373  1.0000
  C   C3        1.0  0.73219  0.61012  0.70373  1.0000
  C   C4        1.0  0.38989  0.26781  0.79627  1.0000
  C   C5        1.0  0.21924  0.51015  0.31406  1.0000
  C   C6        1.0  0.48985  0.78076  0.18594  1.0000
  C   C7        1.0  0.78076  0.48985  0.68594  1.0000
  C   C8        1.0  0.51015  0.21924  0.81406  1.0000
  C   C9        1.0  0.83033  0.14324  0.38176  1.0000
  C   C10       1.0  0.85676  0.16967  0.11824  1.0000
  C   C11       1.0  0.16967  0.85676  0.61824  1.0000
  C   C12       1.0  0.14324  0.83033  0.88176  1.0000
  C   C13       1.0  0.86421  0.01796  0.41288  1.0000
  C   C14       1.0  0.98204  0.13579  0.08712  1.0000
  C   C15       1.0  0.13579  0.98204  0.58712  1.0000
  C   C16       1.0  0.01796  0.86421  0.91288  1.0000
  C   C17       1.0  0.28004  0.99647  0.16709  1.0000
  C   C18       1.0  0.00353  0.71996  0.33291  1.0000
  C   C19       1.0  0.71996  0.00353  0.83291  1.0000
  C   C20       1.0  0.99647  0.28004  0.66709  1.0000
  C   C21       1.0  0.38450  0.09183  0.08873  1.0000
  C   C22       1.0  0.90817  0.61550  0.41127  1.0000
  C   C23       1.0  0.61550  0.90817  0.91127  1.0000
  C   C24       1.0  0.09183  0.38450  0.58873  1.0000
  H   H1        1.0  0.22823  0.29241  0.23384  1.0000
  H   H2        1.0  0.70759  0.77177  0.26616  1.0000
  H   H3        1.0  0.77177  0.70759  0.76616  1.0000
  H   H4        1.0  0.29241  0.22823  0.73384  1.0000
  H   H5        1.0  0.13186  0.53478  0.26877  1.0000
  H   H6        1.0  0.46522  0.86814  0.23123  1.0000
  H   H7        1.0  0.86814  0.46522  0.73123  1.0000
  H   H8        1.0  0.53479  0.13186  0.76877  1.0000
  H   H9        1.0  0.90226  0.25178  0.33602  1.0000
  H   H10       1.0  0.74822  0.09774  0.16398  1.0000
  H   H11       1.0  0.09774  0.74823  0.66398  1.0000
  H   H12       1.0  0.25178  0.90226  0.83602  1.0000
  H   H13       1.0  0.97013  0.99987  0.39793  1.0000
  H   H14       1.0  0.00013  0.02987  0.10207  1.0000
  H   H15       1.0  0.02987  0.00013  0.60207  1.0000
  H   H16       1.0  0.99987  0.97013  0.89793  1.0000
  H   H17       1.0  0.16345  0.88049  0.15898  1.0000
  H   H18       1.0  0.11951  0.83655  0.34102  1.0000
  H   H19       1.0  0.83655  0.11951  0.84102  1.0000
  H   H20       1.0  0.88049  0.16345  0.65898  1.0000
  H   H21       1.0  0.37228  0.07366  0.00233  1.0000
  H   H22       1.0  0.92633  0.62772  0.49767  1.0000
  H   H23       1.0  0.62772  0.92633  0.99767  1.0000
  H   H24       1.0  0.07366  0.37228  0.50233  1.0000
  N   N1        1.0  0.38471  0.41361  0.37360  1.0000
  N   N2        1.0  0.58639  0.61529  0.12640  1.0000
  N   N3        1.0  0.61529  0.58639  0.62640  1.0000
  N   N4        1.0  0.41361  0.38471  0.87360  1.0000
  N   N5        1.0  0.40708  0.54464  0.43508  1.0000
  N   N6        1.0  0.45536  0.59292  0.06492  1.0000
  N   N7        1.0  0.59292  0.45536  0.56492  1.0000
  N   N8        1.0  0.54464  0.40708  0.93508  1.0000
  N   N9        1.0  0.30899  0.60508  0.40155  1.0000
  N   N10       1.0  0.39492  0.69101  0.09845  1.0000
  N   N11       1.0  0.69101  0.39492  0.59845  1.0000
  N   N12       1.0  0.60508  0.30899  0.90155  1.0000
  N   N13       1.0  0.68202  0.11112  0.42090  1.0000
  N   N14       1.0  0.88888  0.31797  0.07910  1.0000
  N   N15       1.0  0.31797  0.88888  0.57910  1.0000
  N   N16       1.0  0.11112  0.68203  0.92090  1.0000
  N   N17       1.0  0.62830  0.97105  0.47379  1.0000
  N   N18       1.0  0.02895  0.37170  0.02622  1.0000
  N   N19       1.0  0.37170  0.02895  0.52621  1.0000
  N   N20       1.0  0.97105  0.62830  0.97378  1.0000
  N   N21       1.0  0.73536  0.91242  0.47062  1.0000
  N   N22       1.0  0.08758  0.26464  0.02938  1.0000
  N   N23       1.0  0.26464  0.08759  0.52938  1.0000
  N   N24       1.0  0.91242  0.73536  0.97062  1.0000
  N   N25       1.0  0.35306  0.07225  0.26357  1.0000
  N   N26       1.0  0.92775  0.64694  0.23643  1.0000
  N   N27       1.0  0.64694  0.92775  0.73643  1.0000
  N   N28       1.0  0.07225  0.35306  0.76357  1.0000
  N   N29       1.0  0.49555  0.20740  0.24402  1.0000
  N   N30       1.0  0.79260  0.50445  0.25599  1.0000
  N   N31       1.0  0.50445  0.79260  0.75598  1.0000
  N   N32       1.0  0.20740  0.49555  0.74402  1.0000
  N   N33       1.0  0.51795  0.22350  0.13869  1.0000
  N   N34       1.0  0.77650  0.48205  0.36131  1.0000
  N   N35       1.0  0.48205  0.77650  0.86131  1.0000
  N   N36       1.0  0.22350  0.51794  0.63869  1.0000
  Yb  Yb1       1.0  0.52316  0.25924  0.42776  1.0000
  Yb  Yb2       1.0  0.74076  0.47684  0.07224  1.0000
  Yb  Yb3       1.0  0.47684  0.74076  0.57224  1.0000
  Yb  Yb4       1.0  0.25924  0.52316  0.92776  1.0000
