data_image0
_chemical_formula_structural       C18H15N6O21Yb3
_chemical_formula_sum              "C18 H15 N6 O21 Yb3"
_cell_length_a       9.60888
_cell_length_b       9.60886
_cell_length_c       9.60888
_cell_angle_alpha    78.923
_cell_angle_beta     78.9229
_cell_angle_gamma    78.9228

_space_group_name_H-M_alt    "P 1"
_space_group_IT_number       1

loop_
  _space_group_symop_operation_xyz
  'x, y, z'

loop_
  _atom_site_type_symbol
  _atom_site_label
  _atom_site_symmetry_multiplicity
  _atom_site_fract_x
  _atom_site_fract_y
  _atom_site_fract_z
  _atom_site_occupancy
  C   C1        1.0  0.67057  0.66652  0.00160  1.0000
  C   C2        1.0  0.00160  0.67057  0.66653  1.0000
  C   C3        1.0  0.66653  0.00160  0.67057  1.0000
  C   C4        1.0  0.99840  0.33348  0.32944  1.0000
  C   C5        1.0  0.33348  0.32944  0.99840  1.0000
  C   C6        1.0  0.32944  0.99840  0.33348  1.0000
  C   C7        1.0  0.63912  0.51950  0.99904  1.0000
  C   C8        1.0  0.99904  0.63912  0.51950  1.0000
  C   C9        1.0  0.51950  0.99904  0.63912  1.0000
  C   C10       1.0  0.00097  0.48050  0.36089  1.0000
  C   C11       1.0  0.48051  0.36088  0.00097  1.0000
  C   C12       1.0  0.36089  0.00096  0.48051  1.0000
  C   C13       1.0  0.49896  0.50104  0.00000  1.0000
  C   C14       1.0  0.00000  0.49896  0.50104  1.0000
  C   C15       1.0  0.50104  1.00000  0.49896  1.0000
  C   C16       1.0  0.72447  0.27553  0.00000  1.0000
  C   C17       1.0  0.00001  0.72447  0.27553  1.0000
  C   C18       1.0  0.27553  0.00000  0.72447  1.0000
  H   H1        1.0  0.40997  0.59003  0.00000  1.0000
  H   H2        1.0  0.00000  0.40997  0.59003  1.0000
  H   H3        1.0  0.59004  1.00000  0.40997  1.0000
  H   H4        1.0  0.76293  0.85281  0.07561  1.0000
  H   H5        1.0  0.07561  0.76293  0.85281  1.0000
  H   H6        1.0  0.85281  0.07561  0.76293  1.0000
  H   H7        1.0  0.92439  0.14719  0.23708  1.0000
  H   H8        1.0  0.14719  0.23708  0.92439  1.0000
  H   H9        1.0  0.23708  0.92439  0.14719  1.0000
  H   H10       1.0  0.76539  0.02272  0.06289  1.0000
  H   H11       1.0  0.06290  0.76539  0.02272  1.0000
  H   H12       1.0  0.02272  0.06289  0.76539  1.0000
  H   H13       1.0  0.93711  0.97729  0.23462  1.0000
  H   H14       1.0  0.97729  0.23462  0.93711  1.0000
  H   H15       1.0  0.23462  0.93711  0.97729  1.0000
  N   N1        1.0  0.75061  0.41194  0.00073  1.0000
  N   N2        1.0  0.00073  0.75061  0.41195  1.0000
  N   N3        1.0  0.41195  0.00073  0.75061  1.0000
  N   N4        1.0  0.99928  0.58806  0.24940  1.0000
  N   N5        1.0  0.58806  0.24940  0.99928  1.0000
  N   N6        1.0  0.24940  0.99927  0.58806  1.0000
  O   O1        1.0  0.57472  0.77224  0.97336  1.0000
  O   O2        1.0  0.97336  0.57472  0.77224  1.0000
  O   O3        1.0  0.77225  0.97336  0.57472  1.0000
  O   O4        1.0  0.02664  0.22776  0.42529  1.0000
  O   O5        1.0  0.22776  0.42529  0.02664  1.0000
  O   O6        1.0  0.42529  0.02664  0.22776  1.0000
  O   O7        1.0  0.79162  0.67227  0.03511  1.0000
  O   O8        1.0  0.03511  0.79162  0.67227  1.0000
  O   O9        1.0  0.67227  0.03511  0.79162  1.0000
  O   O10       1.0  0.96490  0.32773  0.20839  1.0000
  O   O11       1.0  0.32773  0.20838  0.96490  1.0000
  O   O12       1.0  0.20839  0.96490  0.32773  1.0000
  O   O13       1.0  0.82884  0.17117  0.00000  1.0000
  O   O14       1.0  0.00001  0.82884  0.17117  1.0000
  O   O15       1.0  0.17117  0.00000  0.82884  1.0000
  O   O16       1.0  0.70332  0.94543  0.09382  1.0000
  O   O17       1.0  0.09382  0.70332  0.94543  1.0000
  O   O18       1.0  0.94543  0.09382  0.70332  1.0000
  O   O19       1.0  0.90618  0.05457  0.29669  1.0000
  O   O20       1.0  0.05458  0.29669  0.90618  1.0000
  O   O21       1.0  0.29669  0.90618  0.05458  1.0000
  Yb  Yb1       1.0  0.50000  0.00842  0.99158  1.0000
  Yb  Yb2       1.0  0.99158  0.50000  0.00842  1.0000
  Yb  Yb3       1.0  0.00842  0.99158  0.50000  1.0000
