data_image0
_chemical_formula_structural       C24H20N8O24Yb4
_chemical_formula_sum              "C24 H20 N8 O24 Yb4"
_cell_length_a       5.98659
_cell_length_b       11.7559
_cell_length_c       12.3352
_cell_angle_alpha    77.1617
_cell_angle_beta     75.9452
_cell_angle_gamma    75.2455

_space_group_name_H-M_alt    "P 1"
_space_group_IT_number       1

loop_
  _space_group_symop_operation_xyz
  'x, y, z'

loop_
  _atom_site_type_symbol
  _atom_site_label
  _atom_site_symmetry_multiplicity
  _atom_site_fract_x
  _atom_site_fract_y
  _atom_site_fract_z
  _atom_site_occupancy
  C   C1        1.0  0.03301  0.31910  0.40586  1.0000
  C   C2        1.0  0.75830  0.18089  0.09412  1.0000
  C   C3        1.0  0.96699  0.68089  0.59414  1.0000
  C   C4        1.0  0.24170  0.81912  0.90588  1.0000
  C   C5        1.0  0.03166  0.28667  0.52301  1.0000
  C   C6        1.0  0.84163  0.21327  0.97697  1.0000
  C   C7        1.0  0.96834  0.71333  0.47699  1.0000
  C   C8        1.0  0.15837  0.78674  0.02303  1.0000
  C   C9        1.0  0.28432  0.41135  0.50269  1.0000
  C   C10       1.0  0.19885  0.08871  0.99724  1.0000
  C   C11       1.0  0.71568  0.58864  0.49731  1.0000
  C   C12       1.0  0.80115  0.91129  0.00276  1.0000
  C   C13       1.0  0.27826  0.44769  0.38773  1.0000
  C   C14       1.0  0.11410  0.05231  0.11218  1.0000
  C   C15       1.0  0.72174  0.55231  0.61227  1.0000
  C   C16       1.0  0.88590  0.94769  0.88782  1.0000
  C   C17       1.0  0.91365  0.26416  0.34227  1.0000
  C   C18       1.0  0.52034  0.23583  0.15774  1.0000
  C   C19       1.0  0.08635  0.73584  0.65773  1.0000
  C   C20       1.0  0.47966  0.76417  0.84226  1.0000
  C   C21       1.0  0.87771  0.20588  0.60327  1.0000
  C   C22       1.0  0.68700  0.29406  0.89680  1.0000
  C   C23       1.0  0.12229  0.79411  0.39674  1.0000
  C   C24       1.0  0.31300  0.70594  0.10320  1.0000
  H   H1        1.0  0.17743  0.06055  0.42754  1.0000
  H   H2        1.0  0.66544  0.43955  0.07251  1.0000
  H   H3        1.0  0.82256  0.93945  0.57246  1.0000
  H   H4        1.0  0.33456  0.56045  0.92749  1.0000
  H   H5        1.0  0.26466  0.14000  0.78830  1.0000
  H   H6        1.0  0.19297  0.35996  0.71175  1.0000
  H   H7        1.0  0.73534  0.86000  0.21170  1.0000
  H   H8        1.0  0.80703  0.64004  0.28825  1.0000
  H   H9        1.0  0.50302  0.15560  0.69436  1.0000
  H   H10       1.0  0.35298  0.34439  0.80567  1.0000
  H   H11       1.0  0.49698  0.84440  0.30564  1.0000
  H   H12       1.0  0.64702  0.65562  0.19433  1.0000
  H   H13       1.0  0.38930  0.44556  0.54348  1.0000
  H   H14       1.0  0.37894  0.05466  0.95643  1.0000
  H   H15       1.0  0.61070  0.55444  0.45652  1.0000
  H   H16       1.0  0.62107  0.94534  0.04357  1.0000
  H   H17       1.0  0.37285  0.51414  0.33310  1.0000
  H   H18       1.0  0.22053  0.98592  0.16682  1.0000
  H   H19       1.0  0.62714  0.48586  0.66689  1.0000
  H   H20       1.0  0.77947  0.01408  0.83318  1.0000
  N   N1        1.0  0.15745  0.33482  0.57053  1.0000
  N   N2        1.0  0.06314  0.16518  0.92943  1.0000
  N   N3        1.0  0.84256  0.66518  0.42947  1.0000
  N   N4        1.0  0.93686  0.83482  0.07058  1.0000
  N   N5        1.0  0.14801  0.40261  0.34076  1.0000
  N   N6        1.0  0.89174  0.09740  0.15919  1.0000
  N   N7        1.0  0.85199  0.59739  0.65924  1.0000
  N   N8        1.0  0.10826  0.90260  0.84081  1.0000
  O   O1        1.0  0.85379  0.16595  0.39040  1.0000
  O   O2        1.0  0.41005  0.33392  0.10959  1.0000
  O   O3        1.0  0.14621  0.83405  0.60960  1.0000
  O   O4        1.0  0.58995  0.66608  0.89041  1.0000
  O   O5        1.0  0.88678  0.31900  0.24439  1.0000
  O   O6        1.0  0.45057  0.18102  0.25565  1.0000
  O   O7        1.0  0.11321  0.68100  0.75561  1.0000
  O   O8        1.0  0.54943  0.81898  0.74435  1.0000
  O   O9        1.0  0.66042  0.24947  0.61952  1.0000
  O   O10       1.0  0.52945  0.25055  0.88057  1.0000
  O   O11       1.0  0.33958  0.75053  0.38049  1.0000
  O   O12       1.0  0.47056  0.74945  0.11944  1.0000
  O   O13       1.0  0.97740  0.10454  0.65114  1.0000
  O   O14       1.0  0.73323  0.39542  0.84897  1.0000
  O   O15       1.0  0.02261  0.89546  0.34886  1.0000
  O   O16       1.0  0.26676  0.60459  0.15104  1.0000
  O   O17       1.0  0.32117  0.03354  0.45791  1.0000
  O   O18       1.0  0.81259  0.46652  0.04211  1.0000
  O   O19       1.0  0.67882  0.96645  0.54209  1.0000
  O   O20       1.0  0.18741  0.53348  0.95789  1.0000
  O   O21       1.0  0.39526  0.09833  0.73475  1.0000
  O   O22       1.0  0.22840  0.40166  0.76524  1.0000
  O   O23       1.0  0.60474  0.90167  0.26525  1.0000
  O   O24       1.0  0.77160  0.59834  0.23476  1.0000
  Yb  Yb1       1.0  0.32390  0.97186  0.63855  1.0000
  Yb  Yb2       1.0  0.93436  0.52819  0.86145  1.0000
  Yb  Yb3       1.0  0.67610  0.02814  0.36144  1.0000
  Yb  Yb4       1.0  0.06564  0.47181  0.13855  1.0000
