data_image0
_chemical_formula_structural       C9H18O24Yb2
_chemical_formula_sum              "C9 H18 O24 Yb2"
_cell_length_a       8.71198
_cell_length_b       8.71199
_cell_length_c       8.712
_cell_angle_alpha    66.389
_cell_angle_beta     66.389
_cell_angle_gamma    66.3889

_space_group_name_H-M_alt    "P 1"
_space_group_IT_number       1

loop_
  _space_group_symop_operation_xyz
  'x, y, z'

loop_
  _atom_site_type_symbol
  _atom_site_label
  _atom_site_symmetry_multiplicity
  _atom_site_fract_x
  _atom_site_fract_y
  _atom_site_fract_z
  _atom_site_occupancy
  C   C1        1.0  0.53514  0.46486  0.00000  1.0000
  C   C2        1.0  0.00000  0.53514  0.46486  1.0000
  C   C3        1.0  0.46486  1.00000  0.53514  1.0000
  C   C4        1.0  0.58312  0.31530  0.91882  1.0000
  C   C5        1.0  0.91882  0.58312  0.31530  1.0000
  C   C6        1.0  0.31530  0.91882  0.58312  1.0000
  C   C7        1.0  0.08118  0.68470  0.41689  1.0000
  C   C8        1.0  0.68470  0.41689  0.08118  1.0000
  C   C9        1.0  0.41689  0.08117  0.68471  1.0000
  H   H1        1.0  0.32376  0.55158  0.19260  1.0000
  H   H2        1.0  0.19261  0.32376  0.55158  1.0000
  H   H3        1.0  0.55158  0.19261  0.32376  1.0000
  H   H4        1.0  0.80740  0.44842  0.67624  1.0000
  H   H5        1.0  0.44842  0.67624  0.80740  1.0000
  H   H6        1.0  0.67624  0.80740  0.44842  1.0000
  H   H7        1.0  0.23371  0.28287  0.86558  1.0000
  H   H8        1.0  0.86558  0.23371  0.28287  1.0000
  H   H9        1.0  0.28287  0.86558  0.23371  1.0000
  H   H10       1.0  0.13442  0.71713  0.76629  1.0000
  H   H11       1.0  0.71713  0.76629  0.13442  1.0000
  H   H12       1.0  0.76629  0.13442  0.71713  1.0000
  H   H13       1.0  0.04837  0.37381  0.97824  1.0000
  H   H14       1.0  0.97824  0.04837  0.37381  1.0000
  H   H15       1.0  0.37382  0.97824  0.04837  1.0000
  H   H16       1.0  0.02176  0.62618  0.95163  1.0000
  H   H17       1.0  0.62619  0.95163  0.02176  1.0000
  H   H18       1.0  0.95163  0.02176  0.62618  1.0000
  O   O1        1.0  0.37141  0.46278  0.12353  1.0000
  O   O2        1.0  0.12353  0.37141  0.46278  1.0000
  O   O3        1.0  0.46278  0.12353  0.37142  1.0000
  O   O4        1.0  0.87647  0.53722  0.62859  1.0000
  O   O5        1.0  0.53722  0.62859  0.87647  1.0000
  O   O6        1.0  0.62859  0.87647  0.53723  1.0000
  O   O7        1.0  0.50771  0.19686  0.01087  1.0000
  O   O8        1.0  0.01087  0.50771  0.19686  1.0000
  O   O9        1.0  0.19686  0.01087  0.50771  1.0000
  O   O10       1.0  0.98913  0.80314  0.49229  1.0000
  O   O11       1.0  0.80314  0.49229  0.98913  1.0000
  O   O12       1.0  0.49229  0.98913  0.80314  1.0000
  O   O13       1.0  0.69816  0.31704  0.77263  1.0000
  O   O14       1.0  0.77263  0.69815  0.31704  1.0000
  O   O15       1.0  0.31704  0.77263  0.69815  1.0000
  O   O16       1.0  0.22738  0.68296  0.30184  1.0000
  O   O17       1.0  0.68296  0.30184  0.22738  1.0000
  O   O18       1.0  0.30185  0.22737  0.68296  1.0000
  O   O19       1.0  0.17230  0.31973  0.97503  1.0000
  O   O20       1.0  0.97503  0.17230  0.31973  1.0000
  O   O21       1.0  0.31973  0.97503  0.17230  1.0000
  O   O22       1.0  0.02497  0.68027  0.82770  1.0000
  O   O23       1.0  0.68027  0.82770  0.02497  1.0000
  O   O24       1.0  0.82770  0.02497  0.68027  1.0000
  Yb  Yb1       1.0  0.23380  0.23379  0.23380  1.0000
  Yb  Yb2       1.0  0.76621  0.76620  0.76621  1.0000
