data_image0
_chemical_formula_structural       C5H9N2O8Yb
_chemical_formula_sum              "C5 H9 N2 O8 Yb1"
_cell_length_a       6.51378
_cell_length_b       6.6258
_cell_length_c       6.62572
_cell_angle_alpha    64.5339
_cell_angle_beta     73.1343
_cell_angle_gamma    73.1347

_space_group_name_H-M_alt    "P 1"
_space_group_IT_number       1

loop_
  _space_group_symop_operation_xyz
  'x, y, z'

loop_
  _atom_site_type_symbol
  _atom_site_label
  _atom_site_symmetry_multiplicity
  _atom_site_fract_x
  _atom_site_fract_y
  _atom_site_fract_z
  _atom_site_occupancy
  C   C1        1.0  0.29384  0.17789  0.65040  1.0000
  C   C2        1.0  0.70615  0.34961  0.82208  1.0000
  C   C3        1.0  0.96321  0.17589  0.29851  1.0000
  C   C4        1.0  0.03682  0.70147  0.82412  1.0000
  C   C5        1.0  0.49999  0.71459  0.28541  1.0000
  H   H1        1.0  0.59814  0.00263  0.55720  1.0000
  H   H2        1.0  0.40184  0.44280  0.99736  1.0000
  H   H3        1.0  0.46946  0.90327  0.85126  1.0000
  H   H4        1.0  0.53052  0.14866  0.09679  1.0000
  H   H5        1.0  0.17457  0.18027  0.80656  1.0000
  H   H6        1.0  0.82545  0.19338  0.81973  1.0000
  H   H7        1.0  0.12955  0.17611  0.19216  1.0000
  H   H8        1.0  0.87045  0.80787  0.82388  1.0000
  H   H9        1.0  0.50001  0.55942  0.44057  1.0000
  N   N1        1.0  0.46730  0.01411  0.68651  1.0000
  N   N2        1.0  0.53270  0.31346  0.98590  1.0000
  O   O1        1.0  0.33138  0.79274  0.19451  1.0000
  O   O2        1.0  0.66862  0.80551  0.20727  1.0000
  O   O3        1.0  0.26040  0.32241  0.45751  1.0000
  O   O4        1.0  0.73961  0.54253  0.67757  1.0000
  O   O5        1.0  0.87701  0.00687  0.34419  1.0000
  O   O6        1.0  0.12300  0.65583  0.99315  1.0000
  O   O7        1.0  0.87195  0.33681  0.36579  1.0000
  O   O8        1.0  0.12805  0.63418  0.66322  1.0000
  Yb  Yb1       1.0  0.99999  0.64627  0.35375  1.0000
