data_image0
_chemical_formula_structural       C28H24O36Yb4
_chemical_formula_sum              "C28 H24 O36 Yb4"
_cell_length_a       9.77644
_cell_length_b       9.77519
_cell_length_c       12.9529
_cell_angle_alpha    95.5514
_cell_angle_beta     108.872
_cell_angle_gamma    116.292

_space_group_name_H-M_alt    "P 1"
_space_group_IT_number       1

loop_
  _space_group_symop_operation_xyz
  'x, y, z'

loop_
  _atom_site_type_symbol
  _atom_site_label
  _atom_site_symmetry_multiplicity
  _atom_site_fract_x
  _atom_site_fract_y
  _atom_site_fract_z
  _atom_site_occupancy
  C   C1        1.0  0.73881  0.08596  0.96888  1.0000
  C   C2        1.0  0.61691  0.76994  0.53097  1.0000
  C   C3        1.0  0.26119  0.91403  0.03112  1.0000
  C   C4        1.0  0.38310  0.23006  0.46903  1.0000
  C   C5        1.0  0.07576  0.19918  0.88137  1.0000
  C   C6        1.0  0.81778  0.19438  0.61846  1.0000
  C   C7        1.0  0.92424  0.80082  0.11863  1.0000
  C   C8        1.0  0.18221  0.80561  0.38154  1.0000
  C   C9        1.0  0.86746  0.96416  0.86841  1.0000
  C   C10       1.0  0.59569  0.99915  0.63147  1.0000
  C   C11       1.0  0.13255  0.03585  0.13159  1.0000
  C   C12       1.0  0.40432  0.00084  0.36854  1.0000
  C   C13       1.0  0.23246  0.33695  0.89331  1.0000
  C   C14       1.0  0.94360  0.33916  0.60657  1.0000
  C   C15       1.0  0.76754  0.66305  0.10669  1.0000
  C   C16       1.0  0.05639  0.66083  0.39343  1.0000
  C   C17       1.0  0.00857  0.03708  0.84232  1.0000
  C   C18       1.0  0.69476  0.16631  0.65754  1.0000
  C   C19       1.0  0.99144  0.96293  0.15769  1.0000
  C   C20       1.0  0.30524  0.83368  0.34246  1.0000
  C   C21       1.0  0.33564  0.67953  0.73641  1.0000
  C   C22       1.0  0.44296  0.59912  0.76350  1.0000
  C   C23       1.0  0.66435  0.32048  0.26360  1.0000
  C   C24       1.0  0.55704  0.40089  0.23651  1.0000
  C   C25       1.0  0.85636  0.08538  0.92184  1.0000
  C   C26       1.0  0.66342  0.93454  0.57803  1.0000
  C   C27       1.0  0.14365  0.91462  0.07817  1.0000
  C   C28       1.0  0.33659  0.06545  0.42198  1.0000
  H   H1        1.0  0.68754  0.92881  0.23253  1.0000
  H   H2        1.0  0.19659  0.45510  0.26748  1.0000
  H   H3        1.0  0.31246  0.07120  0.76747  1.0000
  H   H4        1.0  0.80341  0.54490  0.73252  1.0000
  H   H5        1.0  0.63765  0.04759  0.18088  1.0000
  H   H6        1.0  0.36696  0.45685  0.31924  1.0000
  H   H7        1.0  0.36235  0.95242  0.81911  1.0000
  H   H8        1.0  0.63304  0.54315  0.68076  1.0000
  H   H9        1.0  0.78446  0.83807  0.85187  1.0000
  H   H10       1.0  0.48617  0.93277  0.64805  1.0000
  H   H11       1.0  0.21555  0.16193  0.14813  1.0000
  H   H12       1.0  0.51384  0.06723  0.35196  1.0000
  H   H13       1.0  0.05484  0.97680  0.80057  1.0000
  H   H14       1.0  0.67636  0.25435  0.69939  1.0000
  H   H15       1.0  0.94518  0.02320  0.19943  1.0000
  H   H16       1.0  0.32365  0.74564  0.30062  1.0000
  H   H17       1.0  0.23396  0.53654  0.08219  1.0000
  H   H18       1.0  0.95427  0.15157  0.41790  1.0000
  H   H19       1.0  0.76604  0.46348  0.91781  1.0000
  H   H20       1.0  0.04572  0.84843  0.58210  1.0000
  H   H21       1.0  0.39074  0.51855  0.13830  1.0000
  H   H22       1.0  0.88026  0.25218  0.36161  1.0000
  H   H23       1.0  0.60925  0.48145  0.86170  1.0000
  H   H24       1.0  0.11974  0.74782  0.63838  1.0000
  O   O1        1.0  0.64340  0.95641  0.98284  1.0000
  O   O2        1.0  0.47340  0.66066  0.51705  1.0000
  O   O3        1.0  0.35661  0.04359  0.01716  1.0000
  O   O4        1.0  0.52659  0.33933  0.48295  1.0000
  O   O5        1.0  0.73838  0.21526  0.99110  1.0000
  O   O6        1.0  0.72401  0.74729  0.50882  1.0000
  O   O7        1.0  0.26162  0.78474  0.00890  1.0000
  O   O8        1.0  0.27599  0.25271  0.49118  1.0000
  O   O9        1.0  0.33209  0.75404  0.82017  1.0000
  O   O10       1.0  0.43369  0.51175  0.67974  1.0000
  O   O11       1.0  0.66791  0.24596  0.17982  1.0000
  O   O12       1.0  0.56630  0.48824  0.32025  1.0000
  O   O13       1.0  0.34493  0.30727  0.88703  1.0000
  O   O14       1.0  0.92026  0.45794  0.61291  1.0000
  O   O15       1.0  0.65507  0.69273  0.11296  1.0000
  O   O16       1.0  0.07974  0.54205  0.38709  1.0000
  O   O17       1.0  0.98180  0.22985  0.92864  1.0000
  O   O18       1.0  0.80107  0.05311  0.57116  1.0000
  O   O19       1.0  0.01820  0.77015  0.07137  1.0000
  O   O20       1.0  0.19892  0.94688  0.42884  1.0000
  O   O21       1.0  0.24875  0.47427  0.91251  1.0000
  O   O22       1.0  0.06177  0.33628  0.58742  1.0000
  O   O23       1.0  0.75125  0.52573  0.08748  1.0000
  O   O24       1.0  0.93823  0.66371  0.41258  1.0000
  O   O25       1.0  0.26391  0.67019  0.63308  1.0000
  O   O26       1.0  0.53691  0.63065  0.86681  1.0000
  O   O27       1.0  0.73608  0.32980  0.36691  1.0000
  O   O28       1.0  0.46309  0.36935  0.13318  1.0000
  O   O29       1.0  0.59316  0.93517  0.18248  1.0000
  O   O30       1.0  0.25294  0.41080  0.31762  1.0000
  O   O31       1.0  0.40684  0.06484  0.81752  1.0000
  O   O32       1.0  0.74705  0.58920  0.68238  1.0000
  O   O33       1.0  0.35210  0.59710  0.13465  1.0000
  O   O34       1.0  0.96240  0.21712  0.36534  1.0000
  O   O35       1.0  0.64790  0.40291  0.86535  1.0000
  O   O36       1.0  0.03759  0.78288  0.63466  1.0000
  Yb  Yb1       1.0  0.46057  0.73604  0.00219  1.0000
  Yb  Yb2       1.0  0.23384  0.45829  0.49777  1.0000
  Yb  Yb3       1.0  0.53943  0.26397  0.99781  1.0000
  Yb  Yb4       1.0  0.76616  0.54170  0.50222  1.0000
