data_image0
_chemical_formula_structural       C24H32O28Yb4
_chemical_formula_sum              "C24 H32 O28 Yb4"
_cell_length_a       7.55199
_cell_length_b       10.574
_cell_length_c       12.6043
_cell_angle_alpha    72.1275
_cell_angle_beta     72.5696
_cell_angle_gamma    69.0854

_space_group_name_H-M_alt    "P 1"
_space_group_IT_number       1

loop_
  _space_group_symop_operation_xyz
  'x, y, z'

loop_
  _atom_site_type_symbol
  _atom_site_label
  _atom_site_symmetry_multiplicity
  _atom_site_fract_x
  _atom_site_fract_y
  _atom_site_fract_z
  _atom_site_occupancy
  C   C1        1.0  0.06538  0.73209  0.96166  1.0000
  C   C2        1.0  0.75914  0.76774  0.53835  1.0000
  C   C3        1.0  0.93462  0.26791  0.03834  1.0000
  C   C4        1.0  0.24085  0.23226  0.46165  1.0000
  C   C5        1.0  0.10634  0.75727  0.06245  1.0000
  C   C6        1.0  0.92604  0.74255  0.43755  1.0000
  C   C7        1.0  0.89366  0.24273  0.93755  1.0000
  C   C8        1.0  0.07396  0.25745  0.56245  1.0000
  C   C9        1.0  0.30459  0.51248  0.14692  1.0000
  C   C10       1.0  0.96402  0.98739  0.35311  1.0000
  C   C11       1.0  0.69541  0.48752  0.85308  1.0000
  C   C12       1.0  0.03598  0.01261  0.64689  1.0000
  C   C13       1.0  0.30151  0.66279  0.09171  1.0000
  C   C14       1.0  0.05596  0.83706  0.40832  1.0000
  C   C15       1.0  0.69849  0.33721  0.90829  1.0000
  C   C16       1.0  0.94404  0.16294  0.59168  1.0000
  C   C17       1.0  0.31658  0.60685  0.60694  1.0000
  C   C18       1.0  0.53046  0.89310  0.89306  1.0000
  C   C19       1.0  0.68342  0.39315  0.39306  1.0000
  C   C20       1.0  0.46954  0.10690  0.10694  1.0000
  C   C21       1.0  0.50515  0.55071  0.52958  1.0000
  C   C22       1.0  0.58543  0.94927  0.97046  1.0000
  C   C23       1.0  0.49485  0.44929  0.47042  1.0000
  C   C24       1.0  0.41457  0.05074  0.02954  1.0000
  H   H1        1.0  0.98743  0.74355  0.13616  1.0000
  H   H2        1.0  0.86708  0.75626  0.36385  1.0000
  H   H3        1.0  0.01257  0.25645  0.86384  1.0000
  H   H4        1.0  0.13292  0.24375  0.63615  1.0000
  H   H5        1.0  0.10884  0.86565  0.03937  1.0000
  H   H6        1.0  0.01382  0.63415  0.46058  1.0000
  H   H7        1.0  0.89116  0.13435  0.96063  1.0000
  H   H8        1.0  0.98618  0.36585  0.53942  1.0000
  H   H9        1.0  0.41965  0.66302  0.01533  1.0000
  H   H10       1.0  0.09787  0.83682  0.48474  1.0000
  H   H11       1.0  0.58034  0.33698  0.98467  1.0000
  H   H12       1.0  0.90213  0.16318  0.51526  1.0000
  H   H13       1.0  0.34034  0.70218  0.15045  1.0000
  H   H14       1.0  0.19292  0.79769  0.34961  1.0000
  H   H15       1.0  0.65966  0.29782  0.84955  1.0000
  H   H16       1.0  0.80708  0.20231  0.65039  1.0000
  H   H17       1.0  0.61681  0.50184  0.58128  1.0000
  H   H18       1.0  0.69997  0.99809  0.91880  1.0000
  H   H19       1.0  0.38319  0.49816  0.41872  1.0000
  H   H20       1.0  0.30003  0.00191  0.08119  1.0000
  H   H21       1.0  0.54921  0.63887  0.46801  1.0000
  H   H22       1.0  0.65598  0.86113  0.03207  1.0000
  H   H23       1.0  0.45078  0.36113  0.53199  1.0000
  H   H24       1.0  0.34403  0.13888  0.96793  1.0000
  H   H25       1.0  0.17151  0.42348  0.91267  1.0000
  H   H26       1.0  0.50757  0.07658  0.58732  1.0000
  H   H27       1.0  0.82849  0.57652  0.08733  1.0000
  H   H28       1.0  0.49243  0.92342  0.41269  1.0000
  H   H29       1.0  0.33654  0.50596  0.85208  1.0000
  H   H30       1.0  0.69452  0.99410  0.64788  1.0000
  H   H31       1.0  0.66346  0.49404  0.14792  1.0000
  H   H32       1.0  0.30548  0.00590  0.35212  1.0000
  O   O1        1.0  0.16275  0.76637  0.86009  1.0000
  O   O2        1.0  0.78920  0.73348  0.63992  1.0000
  O   O3        1.0  0.83725  0.23363  0.13991  1.0000
  O   O4        1.0  0.21080  0.26652  0.36008  1.0000
  O   O5        1.0  0.93143  0.67964  0.97301  1.0000
  O   O6        1.0  0.58412  0.82018  0.52698  1.0000
  O   O7        1.0  0.06857  0.32036  0.02699  1.0000
  O   O8        1.0  0.41588  0.17982  0.47302  1.0000
  O   O9        1.0  0.30333  0.69672  0.66142  1.0000
  O   O10       1.0  0.66159  0.80331  0.83854  1.0000
  O   O11       1.0  0.69667  0.30328  0.33858  1.0000
  O   O12       1.0  0.33841  0.19669  0.16146  1.0000
  O   O13       1.0  0.16956  0.56842  0.62071  1.0000
  O   O14       1.0  0.35880  0.93140  0.87933  1.0000
  O   O15       1.0  0.83044  0.43158  0.37929  1.0000
  O   O16       1.0  0.64120  0.06859  0.12067  1.0000
  O   O17       1.0  0.15118  0.48135  0.16194  1.0000
  O   O18       1.0  0.79453  0.01858  0.33804  1.0000
  O   O19       1.0  0.84882  0.51865  0.83806  1.0000
  O   O20       1.0  0.20547  0.98142  0.66196  1.0000
  O   O21       1.0  0.22060  0.48931  0.84417  1.0000
  O   O22       1.0  0.55404  0.01068  0.65577  1.0000
  O   O23       1.0  0.77940  0.51069  0.15583  1.0000
  O   O24       1.0  0.44596  0.98932  0.34423  1.0000
  O   O25       1.0  0.46256  0.42726  0.17440  1.0000
  O   O26       1.0  0.06427  0.07261  0.32570  1.0000
  O   O27       1.0  0.53744  0.57274  0.82560  1.0000
  O   O28       1.0  0.93573  0.92739  0.67430  1.0000
  Yb  Yb1       1.0  0.98756  0.68871  0.77059  1.0000
  Yb  Yb2       1.0  0.44682  0.81131  0.72938  1.0000
  Yb  Yb3       1.0  0.01244  0.31129  0.22942  1.0000
  Yb  Yb4       1.0  0.55319  0.18869  0.27062  1.0000
